ptech18/ieee_tn/ckt7/ckt7_Overload.Txt

Power Delivery Element Overload Report

SYMMETRICAL COMPONENT CURRENTS BY CIRCUIT ELEMENT 

Element                             Term    I1    IOver %Normal  %Emerg     I2    %I2/I1    I0    %I0/I1

"Line.SOURCEZ"                  1   418.8   18.89   104.7    69.8     0.1     0.0     0.0     0.0
"Line.157132"                   1   240.1   95.17   159.5   134.3    11.2     4.7    15.8     6.6
"Line.157168"                   1   202.1   61.49   138.4   116.6    10.6     5.2    15.1     7.4
"Line.S_1001933-DA1"            1   378.6   81.16   127.1   101.7     0.4     0.1     1.1     0.3
"Line.S_1001933-DA2"            1   378.6   81.16   127.1   101.7     0.4     0.1     1.1     0.3
"Line.S_1001933-DA3"            1   378.6   81.16   127.1   101.7     0.4     0.1     1.1     0.3
"Line.S_1001665-DA1"            1   379.8   82.37   127.5   102.0     0.4     0.1     1.1     0.3
"Line.S_1001665-DA2"            1   379.8   82.37   127.5   102.0     0.4     0.1     1.1     0.3
"Line.S_1001665-DA3"            1   379.8   82.37   127.5   102.0     0.4     0.1     1.1     0.3
"Line.S_1001577-DA1"            1   789.5  497.47   266.4   213.1     2.7     0.3     4.4     0.6
"Line.S_1001577-DA2"            1   789.5  497.47   266.4   213.1     2.7     0.3     4.4     0.6
"Line.S_1001577-DA3"            1   789.5  497.47   266.4   213.1     2.7     0.3     4.4     0.6
