ptech18/ieee_tn/ckt7/ckt7_Power_elem_kVA.txt

CIRCUIT ELEMENT POWER FLOW

(Power Flow into element from indicated Bus)

Power Delivery Elements

  Bus         Phase     kW     +j   kvar         kVA         PF

ELEMENT = "Vsource.SOURCE"
SOURCEBUS         1    -26034.1 +j -13224.0    29200.2       0.8916
SOURCEBUS         2    -26029.6 +j -13239.7    29203.3       0.8913
SOURCEBUS         3    -26018.2 +j -13227.9    29187.8       0.8914
   TERMINAL TOTAL .....-78082.0 +j -39691.6    87591.2       0.8914
SOURCEBUS         0         0.0 +j      0.0        0.0       1.0000
SOURCEBUS         0         0.0 +j      0.0        0.0       1.0000
SOURCEBUS         0         0.0 +j      0.0        0.0       1.0000
   TERMINAL TOTAL .....     0.0 +j      0.0        0.0       1.0000

ELEMENT = "Line.SOURCEZ"
SOURCEBUS         1     26034.1 +j  13224.0    29200.2       0.8916
SOURCEBUS         2     26029.6 +j  13239.7    29203.3       0.8913
SOURCEBUS         3     26018.2 +j  13227.9    29187.8       0.8914
   TERMINAL TOTAL ..... 78082.0 +j  39691.6    87591.2       0.8914
SOURCEBUSZ        1    -25628.2 +j  -8224.9    26915.6       0.9522
SOURCEBUSZ        2    -25623.5 +j  -8239.7    26915.7       0.9520
SOURCEBUSZ        3    -25612.6 +j  -8233.1    26903.3       0.9520
   TERMINAL TOTAL .....-76864.2 +j -24697.7    80734.7       0.9521

ELEMENT = "Transformer.SUB1"
SOURCEBUSZ        1      8542.7 +j   2741.6     8971.9       0.9522
SOURCEBUSZ        2      8541.2 +j   2746.6     8971.9       0.9520
SOURCEBUSZ        3      8537.5 +j   2744.4     8967.8       0.9520
SOURCEBUSZ        0         0.0 +j      0.0        0.0       1.0000
   TERMINAL TOTAL ..... 25621.4 +j   8232.6    26911.6       0.9521
CKT7              1     -8548.5 +j  -2699.6     8964.7       0.9536
CKT7              2     -8535.9 +j  -2698.3     8952.3       0.9535
CKT7              3     -8535.7 +j  -2716.9     8957.7       0.9529
CKT7              0         0.0 +j      0.0        0.0       1.0000
   TERMINAL TOTAL .....-25620.2 +j  -8114.8    26874.6       0.9533

ELEMENT = "Transformer.SUB2"
SOURCEBUSZ        1      8542.7 +j   2741.6     8971.9       0.9522
SOURCEBUSZ        2      8541.2 +j   2746.6     8971.9       0.9520
SOURCEBUSZ        3      8537.5 +j   2744.4     8967.8       0.9520
SOURCEBUSZ        0         0.0 +j      0.0        0.0       1.0000
   TERMINAL TOTAL ..... 25621.4 +j   8232.6    26911.6       0.9521
CKT7              1     -8548.5 +j  -2699.6     8964.7       0.9536
CKT7              2     -8535.9 +j  -2698.3     8952.3       0.9535
CKT7              3     -8535.7 +j  -2716.9     8957.7       0.9529
CKT7              0         0.0 +j      0.0        0.0       1.0000
   TERMINAL TOTAL .....-25620.2 +j  -8114.8    26874.6       0.9533

ELEMENT = "Transformer.SUB3"
SOURCEBUSZ        1      8542.7 +j   2741.6     8971.9       0.9522
SOURCEBUSZ        2      8541.2 +j   2746.6     8971.9       0.9520
SOURCEBUSZ        3      8537.5 +j   2744.4     8967.8       0.9520
SOURCEBUSZ        0         0.0 +j      0.0        0.0       1.0000
   TERMINAL TOTAL ..... 25621.4 +j   8232.6    26911.6       0.9521
CKT7              1     -8548.5 +j  -2699.6     8964.7       0.9536
CKT7              2     -8535.9 +j  -2698.3     8952.3       0.9535
CKT7              3     -8535.7 +j  -2716.9     8957.7       0.9529
CKT7              0         0.0 +j      0.0        0.0       1.0000
   TERMINAL TOTAL .....-25620.2 +j  -8114.8    26874.6       0.9533

ELEMENT = "Line.326"
CKT7              1         0.0 +j      0.0        0.0       1.0000
CKT7              2         0.0 +j      0.0        0.0       1.0000
CKT7              3         0.0 +j      0.0        0.0       1.0000
   TERMINAL TOTAL .....     0.0 +j      0.0        0.0       1.0000
318405            1        -0.0 +j     -0.0        0.0       0.0000
318405            2        -0.0 +j     -0.0        0.0       0.8661
318405            3         0.0 +j      0.0        0.0       1.0000
   TERMINAL TOTAL .....    -0.0 +j     -0.0        0.0       0.5000

ELEMENT = "Line.333"
CKT7              1      2007.0 +j    329.2     2033.8       0.9868
CKT7              2      1815.2 +j    274.6     1835.8       0.9887
CKT7              3      2032.2 +j    401.8     2071.5       0.9810
   TERMINAL TOTAL .....  5854.3 +j   1005.7     5940.0       0.9856
318412            1     -2007.0 +j   -329.2     2033.8       0.9868
318412            2     -1815.2 +j   -274.6     1835.8       0.9887
318412            3     -2032.2 +j   -401.8     2071.5       0.9810
   TERMINAL TOTAL ..... -5854.3 +j  -1005.7     5940.0       0.9856

ELEMENT = "Line.335"
CKT7              1         0.0 +j      0.0        0.0       1.0000
CKT7              2         0.0 +j      0.0        0.0       1.0000
CKT7              3         0.0 +j      0.0        0.0       1.0000
   TERMINAL TOTAL .....     0.0 +j      0.0        0.0       1.0000
318414            1        -0.0 +j     -0.0        0.0       0.0000
318414            2        -0.0 +j     -0.0        0.0       0.8661
318414            3         0.0 +j      0.0        0.0       1.0000
   TERMINAL TOTAL .....    -0.0 +j     -0.0        0.0       0.5000

ELEMENT = "Line.150394"
157345            1       -17.0 +j     -8.9       19.2       0.8851
157345            2       -16.8 +j     -8.9       19.0       0.8837
157345            3       -16.9 +j     -8.8       19.0       0.8880
   TERMINAL TOTAL .....   -50.7 +j    -26.6       57.2       0.8856
157346            1        17.0 +j      8.9       19.2       0.8851
157346            2        16.8 +j      8.9       19.0       0.8837
157346            3        16.9 +j      8.8       19.0       0.8880
   TERMINAL TOTAL .....    50.7 +j     26.6       57.2       0.8856

ELEMENT = "Line.157109"
165442            1      1990.1 +j    316.2     2015.0       0.9876
165442            2      1780.6 +j    264.3     1800.1       0.9892
165442            3      2003.3 +j    373.3     2037.8       0.9831
   TERMINAL TOTAL .....  5773.9 +j    953.7     5852.2       0.9866
298160            1     -1996.8 +j   -313.6     2021.3       0.9879
298160            2     -1772.7 +j   -264.9     1792.4       0.9890
298160            3     -2000.1 +j   -358.0     2031.9       0.9844
   TERMINAL TOTAL ..... -5769.6 +j   -936.5     5845.1       0.9871

ELEMENT = "Line.157115"
165448            1      2002.3 +j    314.2     2026.8       0.9879
165448            2      1753.5 +j    260.7     1772.8       0.9891
165448            3      1997.9 +j    348.0     2028.0       0.9852
   TERMINAL TOTAL .....  5753.7 +j    922.8     5827.3       0.9874
275354            1     -2012.6 +j   -310.6     2036.4       0.9883
275354            2     -1742.1 +j   -262.2     1761.7       0.9889
275354            3     -1993.1 +j   -325.5     2019.5       0.9869
   TERMINAL TOTAL ..... -5747.7 +j   -898.2     5817.5       0.9880

ELEMENT = "Line.157116"
165449            1         0.1 +j      0.3        0.3       0.3401
165449            2         0.0 +j     -0.0        0.0      -0.0001
165449            3         0.0 +j     -0.0        0.0      -0.0002
   TERMINAL TOTAL .....     0.1 +j      0.3        0.3       0.3401
165450            1        -0.1 +j     -0.3        0.3       0.3401
165450            2         0.0 +j     -0.0        0.0      -0.9137
165450            3        -0.0 +j     -0.0        0.0       0.8301
   TERMINAL TOTAL .....    -0.1 +j     -0.3        0.3       0.3401

ELEMENT = "Line.157118"
165453            1       142.7 +j     75.9      161.7       0.8828
165453            2       137.9 +j     75.4      157.2       0.8774
165453            3       141.9 +j     71.2      158.8       0.8940
   TERMINAL TOTAL .....   422.6 +j    222.5      477.6       0.8848
165454            1      -142.7 +j    -75.9      161.6       0.8828
165454            2      -137.9 +j    -75.4      157.2       0.8774
165454            3      -141.9 +j    -71.2      158.8       0.8940
   TERMINAL TOTAL .....  -422.6 +j   -222.5      477.6       0.8848

ELEMENT = "Line.157119"
165449            1      2013.3 +j    310.0     2037.0       0.9884
165449            2      1732.6 +j    257.9     1751.7       0.9891
165449            3      1992.7 +j    323.7     2018.8       0.9871
   TERMINAL TOTAL .....  5738.6 +j    891.6     5807.5       0.9881
165451            1     -2016.1 +j   -309.0     2039.7       0.9885
165451            2     -1729.5 +j   -258.4     1748.7       0.9890
165451            3     -1991.4 +j   -317.7     2016.6       0.9875
   TERMINAL TOTAL ..... -5737.1 +j   -885.1     5805.0       0.9883

ELEMENT = "Line.157120"
165454            1       134.5 +j     71.7      152.5       0.8825
165454            2       129.4 +j     71.0      147.6       0.8766
165454            3       133.2 +j     66.6      148.9       0.8943
   TERMINAL TOTAL .....   397.1 +j    209.4      448.9       0.8846
238402            1      -134.5 +j    -71.7      152.5       0.8825
238402            2      -129.4 +j    -71.0      147.6       0.8766
238402            3      -133.2 +j    -66.6      148.9       0.8943
   TERMINAL TOTAL .....  -397.1 +j   -209.4      448.9       0.8846

ELEMENT = "Line.157121"
165455            1       -34.6 +j    -18.4       39.1       0.8831
165455            2       -33.0 +j    -18.1       37.7       0.8767
165455            3       -34.0 +j    -16.9       38.0       0.8956
   TERMINAL TOTAL .....  -101.6 +j    -53.4      114.8       0.8853
165456            1        34.6 +j     18.4       39.1       0.8831
165456            2        33.0 +j     18.1       37.7       0.8767
165456            3        34.0 +j     16.9       38.0       0.8956
   TERMINAL TOTAL .....   101.6 +j     53.4      114.8       0.8853

ELEMENT = "Line.157122"
165452            1        91.8 +j     49.1      104.1       0.8817
165452            2        87.8 +j     48.5      100.3       0.8753
165452            3        90.4 +j     45.2      101.1       0.8942
   TERMINAL TOTAL .....   269.9 +j    142.8      305.4       0.8839
283563            1       -91.8 +j    -49.1      104.1       0.8817
283563            2       -87.8 +j    -48.5      100.3       0.8753
283563            3       -90.4 +j    -45.2      101.0       0.8942
   TERMINAL TOTAL .....  -269.9 +j   -142.8      305.4       0.8839

ELEMENT = "Line.157123"
165455            1        34.6 +j     18.4       39.1       0.8831
165455            2        33.0 +j     18.1       37.7       0.8767
165455            3        34.0 +j     16.9       38.0       0.8956
   TERMINAL TOTAL .....   101.6 +j     53.4      114.8       0.8853
165457            1       -34.6 +j    -18.4       39.1       0.8831
165457            2       -33.0 +j    -18.1       37.7       0.8767
165457            3       -34.0 +j    -16.9       38.0       0.8956
   TERMINAL TOTAL .....  -101.6 +j    -53.4      114.8       0.8853

ELEMENT = "Line.157124"
165458            1      -110.0 +j    -59.1      124.8       0.8808
165458            2      -105.1 +j    -58.3      120.2       0.8744
165458            3      -108.2 +j    -54.4      121.1       0.8935
   TERMINAL TOTAL .....  -323.3 +j   -171.8      366.1       0.8830
165459            1       110.0 +j     59.1      124.8       0.8808
165459            2       105.1 +j     58.3      120.2       0.8744
165459            3       108.2 +j     54.4      121.1       0.8935
   TERMINAL TOTAL .....   323.3 +j    171.8      366.1       0.8830

ELEMENT = "Line.157126"
165458            1       110.0 +j     59.1      124.8       0.8808
165458            2       105.1 +j     58.3      120.2       0.8744
165458            3       108.2 +j     54.4      121.1       0.8935
   TERMINAL TOTAL .....   323.3 +j    171.8      366.1       0.8830
165460            1      -110.0 +j    -59.1      124.8       0.8808
165460            2      -105.1 +j    -58.3      120.2       0.8744
165460            3      -108.2 +j    -54.4      121.1       0.8935
   TERMINAL TOTAL .....  -323.3 +j   -171.8      366.1       0.8830

ELEMENT = "Line.157127"
165460            1        92.7 +j     50.0      105.3       0.8803
165460            2        88.6 +j     49.3      101.4       0.8738
165460            3        91.3 +j     46.0      102.2       0.8931
   TERMINAL TOTAL .....   272.6 +j    145.3      308.9       0.8825
165461            1       -92.7 +j    -49.9      105.3       0.8804
165461            2       -88.6 +j    -49.3      101.4       0.8739
165461            3       -91.2 +j    -46.0      102.2       0.8931
   TERMINAL TOTAL .....  -272.5 +j   -145.2      308.8       0.8826

ELEMENT = "Line.157128"
165461            1        92.6 +j     49.5      105.0       0.8820
165461            2        88.5 +j     48.8      101.1       0.8756
165461            3        91.1 +j     45.5      101.9       0.8947
   TERMINAL TOTAL .....   272.2 +j    143.8      307.9       0.8842
165463            1       -92.6 +j    -49.5      105.0       0.8820
165463            2       -88.5 +j    -48.8      101.1       0.8756
165463            3       -91.1 +j    -45.5      101.8       0.8947
   TERMINAL TOTAL .....  -272.2 +j   -143.8      307.8       0.8842

ELEMENT = "Line.157129"
165463            1        58.2 +j     31.2       66.0       0.8815
165463            2        55.6 +j     30.8       63.6       0.8750
165463            3        57.3 +j     28.7       64.1       0.8942
   TERMINAL TOTAL .....   171.1 +j     90.6      193.6       0.8837
165462            1       -58.2 +j    -31.2       66.0       0.8815
165462            2       -55.6 +j    -30.8       63.5       0.8750
165462            3       -57.3 +j    -28.7       64.0       0.8942
   TERMINAL TOTAL .....  -171.1 +j    -90.6      193.6       0.8837

ELEMENT = "Line.157130"
165465            1       -34.4 +j    -18.3       38.9       0.8830
165465            2       -32.9 +j    -18.1       37.5       0.8765
165465            3       -33.8 +j    -16.8       37.8       0.8954
   TERMINAL TOTAL .....  -101.1 +j    -53.2      114.2       0.8851
165463            1        34.4 +j     18.3       38.9       0.8830
165463            2        32.9 +j     18.1       37.5       0.8765
165463            3        33.8 +j     16.8       37.8       0.8954
   TERMINAL TOTAL .....   101.1 +j     53.2      114.2       0.8851

ELEMENT = "Line.157131"
165461            1         0.1 +j      0.5        0.5       0.2041
165461            2         0.1 +j      0.5        0.5       0.1908
165461            3         0.1 +j      0.5        0.5       0.2300
   TERMINAL TOTAL .....     0.3 +j      1.4        1.4       0.2083
165466            1        -0.1 +j     -0.5        0.5       0.2041
165466            2        -0.1 +j     -0.5        0.5       0.1908
165466            3        -0.1 +j     -0.5        0.5       0.2300
   TERMINAL TOTAL .....    -0.3 +j     -1.4        1.4       0.2083

ELEMENT = "Line.157132"
165451            1      1763.4 +j    174.0     1772.0       0.9952
165451            2      1460.6 +j    111.4     1464.9       0.9971
165451            3      1741.2 +j    192.1     1751.7       0.9940
   TERMINAL TOTAL .....  4965.2 +j    477.5     4988.2       0.9954
165467            1     -1762.1 +j   -173.1     1770.6       0.9952
165467            2     -1456.9 +j   -111.7     1461.2       0.9971
165467            3     -1737.1 +j   -188.5     1747.3       0.9942
   TERMINAL TOTAL ..... -4956.2 +j   -473.3     4978.7       0.9955

ELEMENT = "Line.157133"
165467            1      1753.9 +j    168.9     1762.0       0.9954
165467            2      1456.9 +j    111.7     1461.2       0.9971
165467            3      1737.1 +j    188.5     1747.3       0.9942
   TERMINAL TOTAL .....  4948.0 +j    469.1     4970.2       0.9955
165468            1     -1754.9 +j   -168.7     1763.0       0.9954
165468            2     -1456.1 +j   -112.0     1460.4       0.9971
165468            3     -1736.7 +j   -186.8     1746.7       0.9943
   TERMINAL TOTAL ..... -4947.7 +j   -467.5     4969.7       0.9956

ELEMENT = "Line.157136"
165475            1        88.2 +j     47.3      100.1       0.8815
165475            2        83.9 +j     46.6       96.0       0.8743
165475            3        86.7 +j     43.0       96.8       0.8958
   TERMINAL TOTAL .....   258.8 +j    136.8      292.8       0.8841
165476            1       -88.2 +j    -47.3      100.1       0.8815
165476            2       -83.9 +j    -46.6       96.0       0.8743
165476            3       -86.7 +j    -43.0       96.8       0.8958
   TERMINAL TOTAL .....  -258.8 +j   -136.8      292.8       0.8841

ELEMENT = "Line.157137"
165477            1       -88.2 +j    -47.3      100.1       0.8815
165477            2       -83.9 +j    -46.6       95.9       0.8743
165477            3       -86.7 +j    -43.0       96.8       0.8958
   TERMINAL TOTAL .....  -258.8 +j   -136.8      292.8       0.8841
165476            1        88.2 +j     47.3      100.1       0.8815
165476            2        83.9 +j     46.6       96.0       0.8743
165476            3        86.7 +j     43.0       96.8       0.8958
   TERMINAL TOTAL .....   258.8 +j    136.8      292.8       0.8841

ELEMENT = "Line.157138"
165475            1       -88.2 +j    -47.3      100.1       0.8815
165475            2       -83.9 +j    -46.6       96.0       0.8743
165475            3       -86.7 +j    -43.0       96.8       0.8958
   TERMINAL TOTAL .....  -258.8 +j   -136.8      292.8       0.8841
273626            1        88.2 +j     47.3      100.1       0.8815
273626            2        83.9 +j     46.6       96.0       0.8744
273626            3        86.7 +j     43.0       96.8       0.8958
   TERMINAL TOTAL .....   258.9 +j    136.8      292.8       0.8841

ELEMENT = "Line.157142"
165468            1      1754.9 +j    168.7     1763.0       0.9954
165468            2      1456.0 +j    111.9     1460.3       0.9971
165468            3      1736.7 +j    186.8     1746.7       0.9943
   TERMINAL TOTAL .....  4947.6 +j    467.3     4969.6       0.9956
165469            1     -1755.8 +j   -168.5     1763.9       0.9954
165469            2     -1455.2 +j   -112.2     1459.5       0.9970
165469            3     -1736.3 +j   -185.0     1746.1       0.9944
   TERMINAL TOTAL ..... -4947.3 +j   -465.7     4969.2       0.9956

ELEMENT = "Line.157143"
165469            1      1642.1 +j    107.8     1645.6       0.9979
165469            2      1342.8 +j     50.4     1343.8       0.9993
165469            3      1623.7 +j    129.0     1628.9       0.9969
   TERMINAL TOTAL .....  4608.7 +j    287.1     4617.6       0.9981
165480            1     -1643.5 +j   -107.5     1647.0       0.9979
165480            2     -1341.7 +j    -50.9     1342.7       0.9993
165480            3     -1623.1 +j   -126.6     1628.0       0.9970
   TERMINAL TOTAL ..... -4608.3 +j   -285.0     4617.1       0.9981

ELEMENT = "Line.157144"
165478            1      1609.9 +j     88.9     1612.4       0.9985
165478            2      1308.1 +j     32.9     1308.5       0.9997
165478            3      1588.8 +j    108.3     1592.5       0.9977
   TERMINAL TOTAL .....  4506.8 +j    230.2     4512.7       0.9987
165479            1     -1610.9 +j    -88.7     1613.4       0.9985
165479            2     -1307.3 +j    -33.3     1307.7       0.9997
165479            3     -1588.4 +j   -106.6     1591.9       0.9978
   TERMINAL TOTAL ..... -4506.6 +j   -228.6     4512.4       0.9987

ELEMENT = "Line.157145"
165480            1      1643.5 +j    107.5     1647.0       0.9979
165480            2      1341.6 +j     50.7     1342.6       0.9993
165480            3      1623.1 +j    126.6     1628.0       0.9970
   TERMINAL TOTAL .....  4608.2 +j    284.7     4617.0       0.9981
165478            1     -1644.4 +j   -107.3     1647.9       0.9979
165478            2     -1340.8 +j    -51.0     1341.8       0.9993
165478            3     -1622.7 +j   -124.9     1627.5       0.9971
   TERMINAL TOTAL ..... -4608.0 +j   -283.2     4616.7       0.9981

ELEMENT = "Line.157147"
165484            1       -17.2 +j     -9.2       19.5       0.8830
165484            2       -16.3 +j     -9.0       18.7       0.8752
165484            3       -16.9 +j     -8.3       18.8       0.8976
   TERMINAL TOTAL .....   -50.5 +j    -26.5       57.0       0.8855
165483            1        17.2 +j      9.2       19.5       0.8830
165483            2        16.3 +j      9.0       18.7       0.8752
165483            3        16.9 +j      8.3       18.8       0.8976
   TERMINAL TOTAL .....    50.5 +j     26.5       57.0       0.8855

ELEMENT = "Line.157148"
165483            1       -34.5 +j    -18.3       39.1       0.8831
165483            2       -32.7 +j    -18.1       37.4       0.8753
165483            3       -33.9 +j    -16.6       37.7       0.8977
   TERMINAL TOTAL .....  -101.1 +j    -53.1      114.2       0.8855
261839            1        34.5 +j     18.3       39.1       0.8831
261839            2        32.7 +j     18.1       37.4       0.8753
261839            3        33.9 +j     16.6       37.7       0.8977
   TERMINAL TOTAL .....   101.1 +j     53.1      114.2       0.8855

ELEMENT = "Line.157149"
261838            1       -34.5 +j    -18.3       39.1       0.8831
261838            2       -32.7 +j    -18.1       37.4       0.8753
261838            3       -33.9 +j    -16.6       37.7       0.8977
   TERMINAL TOTAL .....  -101.1 +j    -53.1      114.2       0.8855
165478            1        34.5 +j     18.3       39.1       0.8831
165478            2        32.7 +j     18.1       37.4       0.8753
165478            3        33.9 +j     16.6       37.7       0.8977
   TERMINAL TOTAL .....   101.1 +j     53.1      114.2       0.8855

ELEMENT = "Line.157150"
165479            1        13.8 +j      7.1       15.5       0.8886
165479            2         1.7 +j      0.9        2.0       0.8817
165479            3         1.8 +j      0.9        2.0       0.8818
   TERMINAL TOTAL .....    17.3 +j      9.0       19.5       0.8872
165486            1       -13.8 +j     -7.1       15.5       0.8886
165486            2        -1.7 +j     -0.9        2.0       0.8816
165486            3        -1.8 +j     -0.9        2.0       0.8818
   TERMINAL TOTAL .....   -17.3 +j     -9.0       19.5       0.8872

ELEMENT = "Line.157151"
165486            1        12.1 +j      6.2       13.6       0.8899
165486            2        -0.0 +j     -0.0        0.0       0.0010
165486            3        -0.0 +j     -0.0        0.0       0.0021
   TERMINAL TOTAL .....    12.1 +j      6.2       13.6       0.8899
165485            1       -12.1 +j     -6.2       13.6       0.8899
165485            2         0.0 +j     -0.0        0.0      -0.9148
165485            3         0.0 +j     -0.0        0.0      -0.5493
   TERMINAL TOTAL .....   -12.1 +j     -6.2       13.6       0.8899

ELEMENT = "Line.157152"
165479            1      1597.1 +j     81.6     1599.2       0.9987
165479            2      1305.6 +j     32.4     1306.0       0.9997
165479            3      1586.6 +j    105.6     1590.1       0.9978
   TERMINAL TOTAL .....  4489.3 +j    219.7     4494.7       0.9988
165487            1     -1598.6 +j    -81.4     1600.6       0.9987
165487            2     -1304.4 +j    -33.0     1304.8       0.9997
165487            3     -1586.0 +j   -103.1     1589.3       0.9979
   TERMINAL TOTAL ..... -4489.0 +j   -217.4     4494.2       0.9988

ELEMENT = "Line.157153"
165488            1       -81.3 +j    -41.9       91.4       0.8888
   TERMINAL TOTAL .....   -81.3 +j    -41.9       91.4       0.8888
165489            1        81.3 +j     41.9       91.4       0.8888
   TERMINAL TOTAL .....    81.3 +j     41.9       91.4       0.8888

ELEMENT = "Line.157155"
165488            1        81.3 +j     41.9       91.4       0.8888
   TERMINAL TOTAL .....    81.3 +j     41.9       91.4       0.8888
165491            1       -81.3 +j    -41.9       91.4       0.8888
   TERMINAL TOTAL .....   -81.3 +j    -41.9       91.4       0.8888

ELEMENT = "Line.157156"
165491            1        48.8 +j     25.0       54.8       0.8897
   TERMINAL TOTAL .....    48.8 +j     25.0       54.8       0.8897
165490            1       -48.8 +j    -25.0       54.8       0.8897
   TERMINAL TOTAL .....   -48.8 +j    -25.0       54.8       0.8897

ELEMENT = "Line.157157"
165490            1        32.5 +j     16.7       36.5       0.8897
   TERMINAL TOTAL .....    32.5 +j     16.7       36.5       0.8897
165494            1       -32.5 +j    -16.7       36.5       0.8898
   TERMINAL TOTAL .....   -32.5 +j    -16.7       36.5       0.8898

ELEMENT = "Line.157158"
165490            1        16.3 +j      8.3       18.3       0.8897
   TERMINAL TOTAL .....    16.3 +j      8.3       18.3       0.8897
165492            1       -16.3 +j     -8.3       18.3       0.8898
   TERMINAL TOTAL .....   -16.3 +j     -8.3       18.3       0.8898

ELEMENT = "Line.157159"
165494            1        16.3 +j      8.3       18.3       0.8898
   TERMINAL TOTAL .....    16.3 +j      8.3       18.3       0.8898
165493            1       -16.3 +j     -8.3       18.3       0.8898
   TERMINAL TOTAL .....   -16.3 +j     -8.3       18.3       0.8898

ELEMENT = "Line.157160"
165487            1      1517.3 +j     39.4     1517.8       0.9997
165487            2      1304.4 +j     33.0     1304.8       0.9997
165487            3      1586.0 +j    103.1     1589.3       0.9979
   TERMINAL TOTAL .....  4407.7 +j    175.5     4411.2       0.9992
283952            1     -1518.6 +j    -39.6     1519.1       0.9997
283952            2     -1302.9 +j    -33.2     1303.3       0.9997
283952            3     -1585.9 +j   -100.3     1589.0       0.9980
   TERMINAL TOTAL ..... -4407.3 +j   -173.1     4410.7       0.9992

ELEMENT = "Line.157163"
165500            1        17.4 +j      9.3       19.7       0.8822
165500            2        16.3 +j      9.1       18.7       0.8737
165500            3        17.0 +j      8.2       18.9       0.9003
   TERMINAL TOTAL .....    50.7 +j     26.6       57.2       0.8856
165501            1       -17.4 +j     -9.3       19.7       0.8822
165501            2       -16.3 +j     -9.1       18.7       0.8737
165501            3       -17.0 +j     -8.2       18.9       0.9003
   TERMINAL TOTAL .....   -50.7 +j    -26.6       57.2       0.8856

ELEMENT = "Line.157165"
165495            1        17.4 +j      9.3       19.7       0.8822
165495            2        16.3 +j      9.1       18.7       0.8737
165495            3        17.0 +j      8.2       18.9       0.9003
   TERMINAL TOTAL .....    50.7 +j     26.6       57.2       0.8856
165500            1       -17.4 +j     -9.3       19.7       0.8822
165500            2       -16.3 +j     -9.1       18.7       0.8737
165500            3       -17.0 +j     -8.2       18.9       0.9003
   TERMINAL TOTAL .....   -50.7 +j    -26.6       57.2       0.8856

ELEMENT = "Line.157167"
165501            1        17.4 +j      9.3       19.7       0.8822
165501            2        16.3 +j      9.1       18.7       0.8737
165501            3        17.0 +j      8.2       18.9       0.9003
   TERMINAL TOTAL .....    50.7 +j     26.6       57.2       0.8856
165503            1       -17.4 +j     -9.3       19.7       0.8822
165503            2       -16.3 +j     -9.1       18.7       0.8737
165503            3       -17.0 +j     -8.2       18.9       0.9003
   TERMINAL TOTAL .....   -50.7 +j    -26.6       57.2       0.8856

ELEMENT = "Line.157168"
165495            1      1445.2 +j     -0.8     1445.2      -1.0000
165495            2      1228.4 +j     -6.3     1228.4      -1.0000
165495            3      1511.2 +j     58.6     1512.3       0.9992
   TERMINAL TOTAL .....  4184.8 +j     51.5     4185.1       0.9999
165504            1     -1440.9 +j      1.7     1440.9      -1.0000
165504            2     -1211.2 +j      5.8     1211.2      -1.0000
165504            3     -1496.5 +j    -42.0     1497.1       0.9996
   TERMINAL TOTAL ..... -4148.6 +j    -34.5     4148.7       1.0000

ELEMENT = "Line.174945"
181883            1         0.0 +j     -0.0        0.0      -0.0000
181883            2        -0.0 +j     -0.0        0.0       0.0000
181883            3         0.0 +j     -0.0        0.0      -0.0000
   TERMINAL TOTAL .....     0.0 +j     -0.0        0.0      -0.0000
158676            1        -0.0 +j      0.0        0.0      -0.3543
158676            2        -0.0 +j      0.0        0.0      -0.3596
158676            3        -0.0 +j      0.0        0.0      -0.5289
   TERMINAL TOTAL .....    -0.0 +j      0.0        0.0      -0.4072

ELEMENT = "Line.174947"
181889            1        35.0 +j     19.0       39.8       0.8793
181889            2        32.3 +j     18.2       37.1       0.8712
181889            3        34.3 +j     16.2       37.9       0.9044
   TERMINAL TOTAL .....   101.6 +j     53.4      114.8       0.8854
181890            1       -35.0 +j    -19.0       39.8       0.8793
181890            2       -32.3 +j    -18.2       37.1       0.8712
181890            3       -34.3 +j    -16.2       37.9       0.9044
   TERMINAL TOTAL .....  -101.6 +j    -53.4      114.8       0.8854

ELEMENT = "Line.174948"
181891            1       121.8 +j     63.2      137.2       0.8876
181891            2       127.2 +j     66.2      143.4       0.8872
181891            3       104.6 +j     53.7      117.6       0.8897
   TERMINAL TOTAL .....   353.7 +j    183.1      398.2       0.8881
181892            1      -121.8 +j    -63.2      137.2       0.8876
181892            2      -127.2 +j    -66.2      143.4       0.8872
181892            3      -104.6 +j    -53.7      117.6       0.8897
   TERMINAL TOTAL .....  -353.7 +j   -183.1      398.2       0.8881

ELEMENT = "Line.174950"
181884            1       192.0 +j    101.7      217.2       0.8837
181884            2       204.7 +j    109.6      232.2       0.8817
181884            3       173.4 +j     86.5      193.8       0.8949
   TERMINAL TOTAL .....   570.1 +j    297.7      643.1       0.8864
...